<?xml version="1.0" encoding="UTF-8"?>

<!-- generated on 2023-10-15 22:33:48 by Eclipse SUMO netedit Version 1.18.0
<configuration xmlns:xsi="http://www.w3.org/2001/XMLSchema-instance" xsi:noNamespaceSchemaLocation="http://sumo.dlr.de/xsd/neteditConfiguration.xsd">

    <input>
        <sumo-net-file value="D:\OngoingResearch\2023_Cyber_security\data\study_region.net.xml"/>
    </input>

    <output>
        <output-file value="D:\OngoingResearch\2023_Cyber_security\data\study_region.net.xml"/>
    </output>

    <processing>
        <geometry.min-radius.fix.railways value="false"/>
        <geometry.max-grade.fix value="false"/>
        <offset.disable-normalization value="true"/>
        <lefthand value="0"/>
    </processing>

    <junctions>
        <no-turnarounds value="true"/>
        <junctions.corner-detail value="5"/>
        <junctions.limit-turn-speed value="5.50"/>
        <rectangular-lane-cut value="0"/>
    </junctions>

    <pedestrian>
        <walkingareas value="0"/>
    </pedestrian>

</configuration>
-->

<net version="1.16" junctionCornerDetail="5" limitTurnSpeed="5.50" xmlns:xsi="http://www.w3.org/2001/XMLSchema-instance" xsi:noNamespaceSchemaLocation="http://sumo.dlr.de/xsd/net_file.xsd">

    <location netOffset="-584380.89,-4511017.75" convBoundary="497.16,301.00,2629.67,2470.37" origBoundary="-74.000328,40.745588,-73.967324,40.770472" projParameter="+proj=utm +zone=18 +ellps=WGS84 +datum=WGS84 +units=m +no_defs"/>

    <type id="highway.living_street" priority="2" numLanes="1" speed="2.78" disallow="tram rail_urban rail rail_electric rail_fast ship" oneway="0"/>
    <type id="highway.pedestrian" priority="1" numLanes="1" speed="2.78" allow="pedestrian" oneway="1" width="2.00"/>
    <type id="highway.primary" priority="12" numLanes="2" speed="27.78" disallow="tram rail_urban rail rail_electric rail_fast ship" oneway="0"/>
    <type id="highway.residential" priority="3" numLanes="1" speed="13.89" disallow="tram rail_urban rail rail_electric rail_fast ship" oneway="0"/>
    <type id="highway.secondary" priority="11" numLanes="1" speed="27.78" disallow="tram rail_urban rail rail_electric rail_fast ship" oneway="0"/>
    <type id="highway.tertiary" priority="10" numLanes="1" speed="22.22" disallow="tram rail_urban rail rail_electric rail_fast ship" oneway="0"/>
    <type id="highway.unclassified" priority="4" numLanes="1" speed="13.89" disallow="tram rail_urban rail rail_electric rail_fast ship" oneway="0"/>

    <edge id=":-102629_0" function="internal">
        <lane id=":-102629_0_0" index="0" disallow="tram rail_urban rail rail_electric rail_fast ship" speed="6.46" length="9.03" shape="1724.06,1653.65 1722.03,1655.08 1720.96,1656.81 1720.86,1658.84 1721.71,1661.17"/>
    </edge>
    <edge id=":-102629_1" function="internal">
        <lane id=":-102629_1_0" index="0" disallow="tram rail_urban rail rail_electric rail_fast ship" speed="11.18" length="17.79" shape="1722.61,1650.80 1717.56,1653.67 1713.83,1656.25 1710.76,1658.51 1707.70,1660.47"/>
    </edge>
    <edge id=":-102629_2" function="internal">
        <lane id=":-102629_2_0" index="0" disallow="tram rail_urban rail rail_electric rail_fast ship" speed="11.18" length="14.39" shape="1714.87,1648.50 1721.71,1661.17"/>
        <lane id=":-102629_2_1" index="1" disallow="tram rail_urban rail rail_electric rail_fast ship" speed="11.18" length="14.39" shape="1712.06,1650.03 1718.89,1662.69"/>
        <lane id=":-102629_2_2" index="2" disallow="tram rail_urban rail rail_electric rail_fast ship" speed="11.18" length="14.39" shape="1709.24,1651.55 1716.07,1664.20"/>
    </edge>
    <edge id=":-102629_5" function="internal">
        <lane id=":-102629_5_0" index="0" disallow="tram rail_urban rail rail_electric rail_fast ship" speed="6.90" length="10.27" shape="1709.24,1651.55 1710.41,1654.44 1710.55,1656.90 1709.64,1658.90 1707.70,1660.47"/>
    </edge>
    <edge id=":-102664_0" function="internal">
        <lane id=":-102664_0_0" index="0" disallow="tram rail_urban rail rail_electric rail_fast ship" speed="11.18" length="15.65" shape="1368.21,1763.31 1366.23,1758.69 1365.06,1755.02 1364.12,1751.83 1362.83,1748.63"/>
    </edge>
    <edge id=":-102664_1" function="internal">
        <lane id=":-102664_1_0" index="0" disallow="tram rail_urban rail rail_electric rail_fast ship" speed="5.84" length="9.01" shape="1370.45,1760.89 1368.82,1758.90 1368.47,1757.07 1369.38,1755.39 1371.56,1753.87"/>
    </edge>
    <edge id=":-102664_2" function="internal">
        <lane id=":-102664_2_0" index="0" disallow="tram rail_urban rail rail_electric rail_fast ship" speed="7.56" length="12.23" shape="1357.08,1758.01 1360.52,1755.76 1362.62,1753.45 1363.39,1751.08 1362.83,1748.63"/>
    </edge>
    <edge id=":-102664_3" function="internal">
        <lane id=":-102664_3_0" index="0" disallow="tram rail_urban rail rail_electric rail_fast ship" speed="11.18" length="14.72" shape="1357.08,1758.01 1370.10,1751.02"/>
        <lane id=":-102664_3_1" index="1" disallow="tram rail_urban rail rail_electric rail_fast ship" speed="11.18" length="14.72" shape="1358.63,1760.81 1371.56,1753.87"/>
    </edge>
    <edge id=":-102672_0" function="internal">
        <lane id=":-102672_0_0" index="0" disallow="tram rail_urban rail rail_electric rail_fast ship" speed="11.18" length="3.00" shape="1304.35,1877.79 1301.71,1879.21"/>
    </edge>
    <edge id=":-103322_0" function="internal">
        <lane id=":-103322_0_0" index="0" disallow="tram rail_urban rail rail_electric rail_fast ship" speed="11.18" length="8.21" shape="2321.55,1329.87 2319.58,1331.25 2318.45,1332.52 2317.31,1333.79 2315.33,1335.16"/>
        <lane id=":-103322_0_1" index="1" disallow="tram rail_urban rail rail_electric rail_fast ship" speed="11.18" length="8.21" shape="2321.55,1329.87 2319.34,1330.81 2317.68,1331.12 2316.02,1331.42 2313.80,1332.35"/>
    </edge>
    <edge id=":-123287_0" function="internal">
        <lane id=":-123287_0_0" index="0" disallow="tram rail_urban rail rail_electric rail_fast ship" speed="7.29" length="11.68" shape="1913.67,1378.23 1911.56,1375.01 1909.35,1373.10 1907.03,1372.48 1904.62,1373.17"/>
    </edge>
    <edge id=":-123287_1" function="internal">
        <lane id=":-123287_1_0" index="0" disallow="tram rail_urban rail rail_electric rail_fast ship" speed="11.18" length="17.62" shape="1913.67,1378.23 1905.40,1362.65"/>
        <lane id=":-123287_1_1" index="1" disallow="tram rail_urban rail rail_electric rail_fast ship" speed="11.18" length="17.62" shape="1916.49,1376.73 1908.23,1361.16"/>
        <lane id=":-123287_1_2" index="2" disallow="tram rail_urban rail rail_electric rail_fast ship" speed="11.18" length="17.62" shape="1919.32,1375.22 1911.06,1359.66"/>
        <lane id=":-123287_1_3" index="3" disallow="tram rail_urban rail rail_electric rail_fast ship" speed="11.18" length="17.62" shape="1922.14,1373.72 1913.89,1358.17"/>
    </edge>
    <edge id=":-123287_5" function="internal">
        <lane id=":-123287_5_0" index="0" disallow="tram rail_urban rail rail_electric rail_fast ship" speed="11.18" length="21.11" shape="1924.47,1366.13 1918.06,1368.99 1912.71,1370.62 1908.27,1371.76 1904.62,1373.17"/>
    </edge>
    <edge id=":-123287_6" function="internal">
        <lane id=":-123287_6_0" index="0" disallow="tram rail_urban rail rail_electric rail_fast ship" speed="8.00" length="14.21" shape="1922.96,1363.31 1919.30,1364.63 1916.10,1364.47 1913.35,1362.81 1911.06,1359.66"/>
        <lane id=":-123287_6_1" index="1" disallow="tram rail_urban rail rail_electric rail_fast ship" speed="6.50" length="9.03" shape="1921.46,1360.48 1919.13,1361.33 1917.09,1361.22 1915.35,1360.17 1913.89,1358.17"/>
    </edge>
    <edge id=":-123295_0" function="internal">
        <lane id=":-123295_0_0" index="0" disallow="tram rail_urban rail rail_electric rail_fast ship" speed="11.18" length="8.21" shape="1721.31,1111.92 1719.32,1113.29 1718.17,1114.53 1717.02,1115.78 1715.03,1117.14"/>
        <lane id=":-123295_0_1" index="1" disallow="tram rail_urban rail rail_electric rail_fast ship" speed="11.18" length="8.21" shape="1721.31,1111.92 1719.08,1112.85 1717.41,1113.13 1715.74,1113.40 1713.51,1114.33"/>
    </edge>
    <edge id=":-123303_0" function="internal">
        <lane id=":-123303_0_0" index="0" disallow="tram rail_urban rail rail_electric rail_fast ship" speed="11.18" length="8.54" shape="694.40,1023.02 696.33,1021.40 697.16,1019.70 697.99,1018.00 699.91,1016.39"/>
        <lane id=":-123303_0_1" index="1" disallow="tram rail_urban rail rail_electric rail_fast ship" speed="11.18" length="8.54" shape="694.40,1023.02 701.44,1019.21"/>
        <lane id=":-123303_0_2" index="2" disallow="tram rail_urban rail rail_electric rail_fast ship" speed="11.18" length="8.54" shape="694.40,1023.02 696.81,1022.28 698.68,1022.52 700.56,1022.75 702.96,1022.02"/>
    </edge>
    <edge id=":-123472_0" function="internal">
        <lane id=":-123472_0_0" index="0" disallow="tram rail_urban rail rail_electric rail_fast ship" speed="11.18" length="14.41" shape="1950.56,1447.71 1943.85,1435.00"/>
        <lane id=":-123472_0_1" index="1" disallow="tram rail_urban rail rail_electric rail_fast ship" speed="11.18" length="14.41" shape="1953.40,1446.23 1946.68,1433.50"/>
        <lane id=":-123472_0_2" index="2" disallow="tram rail_urban rail rail_electric rail_fast ship" speed="11.18" length="14.41" shape="1956.24,1444.75 1949.51,1432.00"/>
        <lane id=":-123472_0_3" index="3" disallow="tram rail_urban rail rail_electric rail_fast ship" speed="11.18" length="14.41" shape="1959.07,1443.27 1952.33,1430.50"/>
    </edge>
    <edge id=":-123472_4" function="internal">
        <lane id=":-123472_4_0" index="0" disallow="tram rail_urban rail rail_electric rail_fast ship" speed="6.49" length="9.11" shape="1959.07,1443.27 1958.19,1440.93 1958.27,1438.87 1959.32,1437.11 1961.34,1435.65"/>
    </edge>
    <edge id=":-123472_5" function="internal">
        <lane id=":-123472_5_0" index="0" disallow="tram rail_urban rail rail_electric rail_fast ship" speed="6.54" length="9.07" shape="1941.53,1442.62 1943.53,1441.14 1944.58,1439.37 1944.69,1437.33 1943.85,1435.00"/>
    </edge>
    <edge id=":-123472_6" function="internal">
        <lane id=":-123472_6_0" index="0" disallow="tram rail_urban rail rail_electric rail_fast ship" speed="11.18" length="20.76" shape="1941.53,1442.62 1959.85,1432.82"/>
        <lane id=":-123472_6_1" index="1" disallow="tram rail_urban rail rail_electric rail_fast ship" speed="11.18" length="20.76" shape="1943.05,1445.44 1961.34,1435.65"/>
    </edge>
    <edge id=":-123528_0" function="internal">
        <lane id=":-123528_0_0" index="0" disallow="tram rail_urban rail rail_electric rail_fast ship" speed="11.18" length="0.31" shape="1863.49,763.91 1863.21,764.06"/>
        <lane id=":-123528_0_1" index="1" disallow="tram rail_urban rail rail_electric rail_fast ship" speed="11.18" length="0.31" shape="1861.99,761.08 1861.72,761.23"/>
    </edge>
    <edge id=":-123528_2" function="internal">
        <lane id=":-123528_2_0" index="0" disallow="tram rail_urban rail rail_electric rail_fast ship" speed="3.65" length="2.34" shape="1861.99,761.08 1860.56,760.94 1859.83,760.42"/>
    </edge>
    <edge id=":-123528_6" function="internal">
        <lane id=":-123528_6_0" index="0" disallow="tram rail_urban rail rail_electric rail_fast ship" speed="3.65" length="2.34" shape="1859.83,760.42 1859.81,759.53 1860.49,758.26"/>
    </edge>
    <edge id=":-123528_3" function="internal">
        <lane id=":-123528_3_0" index="0" disallow="tram rail_urban rail rail_electric rail_fast ship" speed="11.18" length="0.29" shape="1858.74,755.56 1858.99,755.43"/>
        <lane id=":-123528_3_1" index="1" disallow="tram rail_urban rail rail_electric rail_fast ship" speed="11.18" length="0.29" shape="1860.23,758.39 1860.49,758.26"/>
    </edge>
    <edge id=":-123528_5" function="internal">
        <lane id=":-123528_5_0" index="0" disallow="tram rail_urban rail rail_electric rail_fast ship" speed="3.65" length="2.34" shape="1860.23,758.39 1861.67,758.54 1862.39,759.06"/>
    </edge>
    <edge id=":-123528_7" function="internal">
        <lane id=":-123528_7_0" index="0" disallow="tram rail_urban rail rail_electric rail_fast ship" speed="3.65" length="2.34" shape="1862.39,759.06 1862.41,759.96 1861.72,761.23"/>
    </edge>
    <edge id=":-123530_0" function="internal">
        <lane id=":-123530_0_0" index="0" disallow="tram rail_urban rail rail_electric rail_fast ship" speed="6.49" length="9.03" shape="1903.53,839.89 1902.08,837.88 1900.34,836.82 1898.30,836.72 1895.97,837.57"/>
    </edge>
    <edge id=":-123530_1" function="internal">
        <lane id=":-123530_1_0" index="0" disallow="tram rail_urban rail rail_electric rail_fast ship" speed="3.65" length="4.67" shape="1903.53,839.89 1903.68,838.45 1904.20,837.73 1905.10,837.71 1906.36,838.40"/>
    </edge>
    <edge id=":-123695_0" function="internal">
        <lane id=":-123695_0_0" index="0" disallow="tram rail_urban rail rail_electric rail_fast ship" speed="11.18" length="11.09" shape="1939.84,908.89 1934.64,899.09"/>
    </edge>
    <edge id=":-123695_1" function="internal">
        <lane id=":-123695_1_0" index="0" disallow="tram rail_urban rail rail_electric rail_fast ship" speed="3.65" length="1.44" shape="1939.84,908.89 1939.98,907.46"/>
    </edge>
    <edge id=":-123695_6" function="internal">
        <lane id=":-123695_6_0" index="0" disallow="tram rail_urban rail rail_electric rail_fast ship" speed="3.65" length="3.23" shape="1939.98,907.46 1940.49,906.73 1941.39,906.70 1942.66,907.38"/>
    </edge>
    <edge id=":-123695_2" function="internal">
        <lane id=":-123695_2_0" index="0" disallow="tram rail_urban rail rail_electric rail_fast ship" speed="11.18" length="11.07" shape="1937.47,897.60 1942.66,907.38"/>
    </edge>
    <edge id=":-123695_3" function="internal">
        <lane id=":-123695_3_0" index="0" disallow="tram rail_urban rail rail_electric rail_fast ship" speed="3.65" length="1.44" shape="1937.47,897.60 1937.32,899.04"/>
    </edge>
    <edge id=":-123695_7" function="internal">
        <lane id=":-123695_7_0" index="0" disallow="tram rail_urban rail rail_electric rail_fast ship" speed="3.65" length="3.23" shape="1937.32,899.04 1936.80,899.76 1935.91,899.78 1934.64,899.09"/>
    </edge>
    <edge id=":-123695_4" function="internal">
        <lane id=":-123695_4_0" index="0" disallow="tram rail_urban rail rail_electric rail_fast ship" speed="6.52" length="8.97" shape="1932.32,906.63 1934.30,905.17 1935.35,903.43 1935.46,901.40 1934.64,899.09"/>
    </edge>
    <edge id=":-123695_5" function="internal">
        <lane id=":-123695_5_0" index="0" disallow="tram rail_urban rail rail_electric rail_fast ship" speed="7.30" length="11.66" shape="1932.32,906.63 1935.86,905.12 1938.76,904.74 1941.03,905.49 1942.66,907.38"/>
    </edge>
    <edge id=":-123860_0" function="internal">
        <lane id=":-123860_0_0" index="0" disallow="tram rail_urban rail rail_electric rail_fast ship" speed="6.45" length="9.06" shape="2089.40,1356.10 2090.81,1358.12 2092.54,1359.16 2094.59,1359.25 2096.96,1358.37"/>
    </edge>
    <edge id=":-123860_1" function="internal">
        <lane id=":-123860_1_0" index="0" disallow="tram rail_urban rail rail_electric rail_fast ship" speed="11.18" length="14.41" shape="2089.40,1356.10 2096.21,1368.89"/>
        <lane id=":-123860_1_1" index="1" disallow="tram rail_urban rail rail_electric rail_fast ship" speed="11.18" length="14.41" shape="2086.58,1357.63 2093.37,1370.37"/>
        <lane id=":-123860_1_2" index="2" disallow="tram rail_urban rail rail_electric rail_fast ship" speed="11.18" length="14.41" shape="2083.77,1359.16 2090.53,1371.85"/>
        <lane id=":-123860_1_3" index="3" disallow="tram rail_urban rail rail_electric rail_fast ship" speed="11.18" length="14.41" shape="2080.96,1360.69 2087.70,1373.33"/>
    </edge>
    <edge id=":-123860_5" function="internal">
        <lane id=":-123860_5_0" index="0" disallow="tram rail_urban rail rail_electric rail_fast ship" speed="11.18" length="20.80" shape="2078.66,1368.42 2096.96,1358.37"/>
        <lane id=":-123860_5_1" index="1" disallow="tram rail_urban rail rail_electric rail_fast ship" speed="11.18" length="20.80" shape="2080.27,1371.19 2098.43,1361.21"/>
    </edge>
    <edge id=":-123860_7" function="internal">
        <lane id=":-123860_7_0" index="0" disallow="tram rail_urban rail rail_electric rail_fast ship" speed="7.20" length="11.68" shape="2080.27,1371.19 2083.76,1369.57 2086.64,1369.14 2088.90,1369.90 2090.53,1371.85"/>
        <lane id=":-123860_7_1" index="1" disallow="tram rail_urban rail rail_electric rail_fast ship" speed="6.37" length="8.91" shape="2080.27,1371.19 2082.55,1370.27 2084.55,1370.32 2086.26,1371.34 2087.70,1373.33"/>
    </edge>
    <edge id=":-125298_0" function="internal">
        <lane id=":-125298_0_0" index="0" disallow="tram rail_urban rail rail_electric rail_fast ship" speed="11.18" length="0.31" shape="1983.78,731.03 1983.85,731.09 1983.90,731.13 1983.94,731.18 1983.99,731.25"/>
    </edge>
    <edge id=":-126544_0" function="internal">
        <lane id=":-126544_0_0" index="0" disallow="tram rail_urban rail rail_electric rail_fast ship" speed="11.18" length="8.19" shape="1761.19,1632.84 1759.20,1634.20 1758.04,1635.43 1756.87,1636.66 1754.85,1637.97"/>
        <lane id=":-126544_0_1" index="1" disallow="tram rail_urban rail rail_electric rail_fast ship" speed="11.18" length="8.19" shape="1761.19,1632.84 1758.98,1633.75 1757.31,1634.01 1755.64,1634.25 1753.40,1635.11"/>
    </edge>
    <edge id=":-126545_0" function="internal">
        <lane id=":-126545_0_0" index="0" disallow="tram rail_urban rail rail_electric rail_fast ship" speed="6.53" length="9.07" shape="1549.01,1933.83 1547.52,1931.83 1545.75,1930.78 1543.71,1930.68 1541.39,1931.53"/>
    </edge>
    <edge id=":-126545_1" function="internal">
        <lane id=":-126545_1_0" index="0" disallow="tram rail_urban rail rail_electric rail_fast ship" speed="11.18" length="14.40" shape="1549.01,1933.83 1542.14,1921.15"/>
        <lane id=":-126545_1_1" index="1" disallow="tram rail_urban rail rail_electric rail_fast ship" speed="11.18" length="14.40" shape="1551.82,1932.30 1544.95,1919.64"/>
        <lane id=":-126545_1_2" index="2" disallow="tram rail_urban rail rail_electric rail_fast ship" speed="11.18" length="14.40" shape="1554.63,1930.77 1547.77,1918.12"/>
        <lane id=":-126545_1_3" index="3" disallow="tram rail_urban rail rail_electric rail_fast ship" speed="11.18" length="14.40" shape="1557.44,1929.24 1550.59,1916.60"/>
    </edge>
    <edge id=":-126545_5" function="internal">
        <lane id=":-126545_5_0" index="0" disallow="tram rail_urban rail rail_electric rail_fast ship" speed="11.18" length="20.77" shape="1559.68,1921.69 1541.39,1931.53"/>
        <lane id=":-126545_5_1" index="1" disallow="tram rail_urban rail rail_electric rail_fast ship" speed="11.18" length="20.77" shape="1558.17,1918.87 1539.87,1928.71"/>
    </edge>
    <edge id=":-126545_7" function="internal">
        <lane id=":-126545_7_0" index="0" disallow="tram rail_urban rail rail_electric rail_fast ship" speed="7.33" length="11.71" shape="1558.17,1918.87 1554.61,1920.38 1551.70,1920.76 1549.42,1920.01 1547.77,1918.12"/>
        <lane id=":-126545_7_1" index="1" disallow="tram rail_urban rail rail_electric rail_fast ship" speed="6.51" length="9.02" shape="1558.17,1918.87 1555.85,1919.72 1553.81,1919.63 1552.06,1918.59 1550.59,1916.60"/>
    </edge>
    <edge id=":-128459_0" function="internal">
        <lane id=":-128459_0_0" index="0" disallow="tram rail_urban rail rail_electric rail_fast ship" speed="11.18" length="8.54" shape="1225.57,1106.64 1223.65,1108.26 1222.82,1109.96 1221.99,1111.66 1220.06,1113.27"/>
        <lane id=":-128459_0_1" index="1" disallow="tram rail_urban rail rail_electric rail_fast ship" speed="11.18" length="8.54" shape="1224.05,1103.83 1222.12,1105.44 1221.29,1107.14 1220.47,1108.84 1218.54,1110.46"/>
        <lane id=":-128459_0_2" index="2" disallow="tram rail_urban rail rail_electric rail_fast ship" speed="11.18" length="8.54" shape="1224.05,1103.83 1217.01,1107.64"/>
    </edge>
    <edge id=":-128459_3" function="internal">
        <lane id=":-128459_3_0" index="0" disallow="tram rail_urban rail rail_electric rail_fast ship" speed="11.18" length="8.00" shape="1213.97,1102.01 1221.00,1098.20"/>
        <lane id=":-128459_3_1" index="1" disallow="tram rail_urban rail rail_electric rail_fast ship" speed="11.18" length="8.00" shape="1215.49,1104.83 1222.52,1101.02"/>
    </edge>
    <edge id=":-128933_0" function="internal">
        <lane id=":-128933_0_0" index="0" disallow="tram rail_urban rail rail_electric rail_fast ship" speed="11.18" length="8.21" shape="753.60,1020.04 754.96,1022.03 756.21,1023.18 757.45,1024.32 758.82,1026.31"/>
        <lane id=":-128933_0_1" index="1" disallow="tram rail_urban rail rail_electric rail_fast ship" speed="11.18" length="8.21" shape="750.79,1021.56 752.15,1023.55 753.39,1024.70 754.64,1025.85 756.00,1027.84"/>
        <lane id=":-128933_0_2" index="2" disallow="tram rail_urban rail rail_electric rail_fast ship" speed="11.18" length="8.21" shape="747.97,1023.09 749.33,1025.08 750.58,1026.22 751.83,1027.37 753.19,1029.36"/>
        <lane id=":-128933_0_3" index="3" disallow="tram rail_urban rail rail_electric rail_fast ship" speed="11.18" length="8.21" shape="747.97,1023.09 748.89,1025.31 749.17,1026.98 749.45,1028.66 750.37,1030.88"/>
    </edge>
    <edge id=":-128935_0" function="internal">
        <lane id=":-128935_0_0" index="0" disallow="tram rail_urban rail rail_electric rail_fast ship" speed="11.18" length="8.21" shape="669.39,1462.37 668.01,1460.40 666.75,1459.27 665.48,1458.14 664.10,1456.17"/>
        <lane id=":-128935_0_1" index="1" disallow="tram rail_urban rail rail_electric rail_fast ship" speed="11.18" length="8.21" shape="672.19,1460.81 670.80,1458.84 669.54,1457.71 668.28,1456.58 666.89,1454.61"/>
        <lane id=":-128935_0_2" index="2" disallow="tram rail_urban rail rail_electric rail_fast ship" speed="11.18" length="8.21" shape="674.98,1459.25 673.59,1457.28 672.33,1456.15 671.07,1455.02 669.68,1453.05"/>
        <lane id=":-128935_0_3" index="3" disallow="tram rail_urban rail rail_electric rail_fast ship" speed="11.18" length="8.21" shape="677.77,1457.69 676.39,1455.72 675.12,1454.59 673.86,1453.46 672.47,1451.49"/>
        <lane id=":-128935_0_4" index="4" disallow="tram rail_urban rail rail_electric rail_fast ship" speed="11.18" length="8.21" shape="680.57,1456.13 679.18,1454.16 677.92,1453.03 676.66,1451.90 675.27,1449.93"/>
        <lane id=":-128935_0_5" index="5" disallow="tram rail_urban rail rail_electric rail_fast ship" speed="11.18" length="8.21" shape="680.57,1456.13 679.62,1453.91 679.31,1452.25 679.01,1450.58 678.06,1448.36"/>
    </edge>
    <edge id=":-129073_0" function="internal">
        <lane id=":-129073_0_0" index="0" disallow="pedestrian tram rail_urban rail rail_electric rail_fast ship" speed="11.18" length="8.21" shape="869.80,1235.47 871.16,1237.46 872.40,1238.62 873.65,1239.77 875.00,1241.76"/>
        <lane id=":-129073_0_1" index="1" disallow="pedestrian tram rail_urban rail rail_electric rail_fast ship" speed="11.18" length="8.21" shape="866.98,1236.99 868.34,1238.98 869.58,1240.13 870.83,1241.28 872.18,1243.28"/>
        <lane id=":-129073_0_2" index="2" disallow="pedestrian tram rail_urban rail rail_electric rail_fast ship" speed="11.18" length="8.21" shape="864.17,1238.50 865.52,1240.50 866.77,1241.65 868.01,1242.80 869.37,1244.79"/>
        <lane id=":-129073_0_3" index="3" disallow="pedestrian tram rail_urban rail rail_electric rail_fast ship" speed="11.18" length="8.21" shape="864.17,1238.50 865.08,1240.73 865.36,1242.40 865.63,1244.08 866.55,1246.31"/>
    </edge>
    <edge id=":-129128_0" function="internal">
        <lane id=":-129128_0_0" index="0" disallow="tram rail_urban rail rail_electric rail_fast ship" speed="11.18" length="0.31" shape="1334.37,2415.20 1334.09,2415.35"/>
        <lane id=":-129128_0_1" index="1" disallow="tram rail_urban rail rail_electric rail_fast ship" speed="11.18" length="0.31" shape="1332.84,2412.39 1332.57,2412.53"/>
    </edge>
    <edge id=":-129128_2" function="internal">
        <lane id=":-129128_2_0" index="0" disallow="tram rail_urban rail rail_electric rail_fast ship" speed="3.65" length="2.34" shape="1332.84,2412.39 1331.41,2412.25 1330.67,2411.74"/>
    </edge>
    <edge id=":-129128_6" function="internal">
        <lane id=":-129128_6_0" index="0" disallow="tram rail_urban rail rail_electric rail_fast ship" speed="3.65" length="2.34" shape="1330.67,2411.74 1330.65,2410.85 1331.32,2409.57"/>
    </edge>
    <edge id=":-129128_3" function="internal">
        <lane id=":-129128_3_0" index="0" disallow="tram rail_urban rail rail_electric rail_fast ship" speed="11.18" length="0.29" shape="1329.55,2406.89 1329.80,2406.76"/>
        <lane id=":-129128_3_1" index="1" disallow="tram rail_urban rail rail_electric rail_fast ship" speed="11.18" length="0.29" shape="1331.06,2409.71 1331.32,2409.57"/>
    </edge>
    <edge id=":-129128_5" function="internal">
        <lane id=":-129128_5_0" index="0" disallow="tram rail_urban rail rail_electric rail_fast ship" speed="3.65" length="2.34" shape="1331.06,2409.71 1332.50,2409.85 1333.23,2410.36"/>
    </edge>
    <edge id=":-129128_7" function="internal">
        <lane id=":-129128_7_0" index="0" disallow="tram rail_urban rail rail_electric rail_fast ship" speed="3.65" length="2.34" shape="1333.23,2410.36 1333.25,2411.26 1332.57,2412.53"/>
    </edge>
    <edge id=":-129275_0" function="internal">
        <lane id=":-129275_0_0" index="0" disallow="tram rail_urban rail rail_electric rail_fast ship" speed="11.18" length="8.21" shape="1579.18,636.05 1577.19,637.41 1576.04,638.65 1574.89,639.90 1572.90,641.26"/>
        <lane id=":-129275_0_1" index="1" disallow="tram rail_urban rail rail_electric rail_fast ship" speed="11.18" length="8.21" shape="1579.18,636.05 1576.95,636.97 1575.28,637.25 1573.61,637.52 1571.38,638.44"/>
    </edge>
    <edge id=":-129366_0" function="internal">
        <lane id=":-129366_0_0" index="0" disallow="tram rail_urban rail rail_electric rail_fast ship" speed="11.18" length="14.51" shape="1588.77,2003.58 1586.54,1999.93 1584.68,1997.63 1582.81,1995.34 1580.55,1991.71"/>
        <lane id=":-129366_0_1" index="1" disallow="tram rail_urban rail rail_electric rail_fast ship" speed="11.18" length="14.51" shape="1591.59,2002.08 1589.36,1998.42 1587.50,1996.11 1585.63,1993.82 1583.36,1990.18"/>
        <lane id=":-129366_0_2" index="2" disallow="tram rail_urban rail rail_electric rail_fast ship" speed="11.18" length="14.51" shape="1594.42,2000.57 1592.17,1996.90 1590.31,1994.59 1588.44,1992.29 1586.17,1988.64"/>
        <lane id=":-129366_0_3" index="3" disallow="tram rail_urban rail rail_electric rail_fast ship" speed="11.18" length="14.51" shape="1594.42,2000.57 1592.61,1996.66 1591.72,1993.83 1590.81,1991.00 1588.98,1987.11"/>
    </edge>
    <edge id=":-129366_4" function="internal">
        <lane id=":-129366_4_0" index="0" disallow="tram rail_urban rail rail_electric rail_fast ship" speed="6.92" length="10.35" shape="1594.42,2000.57 1593.65,1998.18 1594.00,1995.99 1595.47,1994.00 1598.06,1992.21"/>
    </edge>
    <edge id=":-129366_5" function="internal">
        <lane id=":-129366_5_0" index="0" disallow="tram rail_urban rail rail_electric rail_fast ship" speed="6.51" length="8.99" shape="1578.34,1999.29 1580.30,1997.81 1581.33,1996.05 1581.41,1994.02 1580.55,1991.71"/>
        <lane id=":-129366_5_1" index="1" disallow="tram rail_urban rail rail_electric rail_fast ship" speed="7.33" length="11.68" shape="1578.34,1999.29 1581.53,1997.13 1583.43,1994.89 1584.04,1992.57 1583.36,1990.18"/>
    </edge>
    <edge id=":-129366_7" function="internal">
        <lane id=":-129366_7_0" index="0" disallow="tram rail_urban rail rail_electric rail_fast ship" speed="11.18" length="20.71" shape="1578.34,1999.29 1596.55,1989.39"/>
        <lane id=":-129366_7_1" index="1" disallow="tram rail_urban rail rail_electric rail_fast ship" speed="11.18" length="20.71" shape="1579.89,2002.09 1598.06,1992.21"/>
    </edge>
    <edge id=":-129377_0" function="internal">
        <lane id=":-129377_0_0" index="0" disallow="tram rail_urban rail rail_electric rail_fast ship" speed="11.18" length="8.21" shape="1239.46,2184.52 1241.46,2183.17 1242.61,2181.93 1243.76,2180.69 1245.74,2179.33"/>
        <lane id=":-129377_0_1" index="1" disallow="tram rail_urban rail rail_electric rail_fast ship" speed="11.18" length="8.21" shape="1239.46,2184.52 1241.70,2183.61 1243.37,2183.34 1245.04,2183.06 1247.27,2182.14"/>
    </edge>
    <edge id=":-131108_0" function="internal">
        <lane id=":-131108_0_0" index="0" disallow="tram rail_urban rail rail_electric rail_fast ship" speed="11.18" length="8.07" shape="1899.27,765.37 1901.18,763.96 1902.28,762.70 1903.39,761.47 1905.35,760.15"/>
    </edge>
    <edge id=":-131843_0" function="internal">
        <lane id=":-131843_0_0" index="0" disallow="tram rail_urban rail rail_electric rail_fast ship" speed="6.50" length="9.04" shape="1799.03,1793.12 1797.04,1794.59 1796.00,1796.35 1795.91,1798.39 1796.78,1800.71"/>
    </edge>
    <edge id=":-131843_1" function="internal">
        <lane id=":-131843_1_0" index="0" disallow="tram rail_urban rail rail_electric rail_fast ship" speed="11.18" length="17.64" shape="1799.03,1793.12 1783.46,1801.43"/>
        <lane id=":-131843_1_1" index="1" disallow="tram rail_urban rail rail_electric rail_fast ship" speed="11.18" length="17.64" shape="1797.51,1790.30 1781.97,1798.60"/>
    </edge>
    <edge id=":-131843_3" function="internal">
        <lane id=":-131843_3_0" index="0" disallow="tram rail_urban rail rail_electric rail_fast ship" speed="11.18" length="14.46" shape="1789.94,1788.02 1796.78,1800.71"/>